
**** 09/10/19 11:14:34 ****** PSpice 16.5.0 (April 2011) ****** ID# 0 ********

 ** Profile: "SCHEMATIC1-Practica 1-1"  [ C:\Users\uriel\Desktop\Practica 1\Practica 1.1\practica 1-1-pspicefiles\schematic1\practica


 ****     CIRCUIT DESCRIPTION


******************************************************************************




** Creating circuit file "Practica 1-1.cir" 
** WARNING: THIS AUTOMATICALLY GENERATED FILE MAY BE OVERWRITTEN BY SUBSEQUENT SIMULATIONS

*Libraries: 
* Profile Libraries :
* Local Libraries :
* From [PSPICE NETLIST] section of C:\Cadence\SPB_16.5\tools\PSpice\PSpice.ini file:
.lib "nom.lib" 

*Analysis directives: 
.TRAN 50u 40m 0 50u 
.PROBE V(alias(*)) I(alias(*)) W(alias(*)) D(alias(*)) NOISE(alias(*)) 
.INC "..\SCHEMATIC1.net" 



**** INCLUDING SCHEMATIC1.net ****

**** RESUMING "Practica 1-1.cir" ****
.END

WARNING(ORPSIM-15188): There are no devices in this circuit
