
**** 09/12/19 10:51:16 ***** PSpice 16.6.0 (October 2012) ***** ID# 0 ********

 ** Profile: "SCHEMATIC1-Practica 1-1"  [ C:\Users\agus_\OneDrive\Escritorio\Practica 1\1.1\practica 1-1-pspicefiles\schematic1\pract


 ****     CIRCUIT DESCRIPTION


******************************************************************************




** Creating circuit file "Practica 1-1.cir" 
** WARNING: THIS AUTOMATICALLY GENERATED FILE MAY BE OVERWRITTEN BY SUBSEQUENT SIMULATIONS

*Libraries: 
* Profile Libraries :
* Local Libraries :
* From [PSPICE NETLIST] section of C:\SPB_Data\cdssetup\OrCAD_PSpice/16.6.0/PSpice.ini file:
.lib "nom.lib" 

*Analysis directives: 
.TRAN 50u 40m 0 50u 
.OPTIONS ADVCONV
.PROBE64 V(alias(*)) I(alias(*)) W(alias(*)) D(alias(*)) NOISE(alias(*)) 
.INC "..\SCHEMATIC1.net" 



**** INCLUDING SCHEMATIC1.net ****
* source PRACTICA 1-1
V_V1         N14373 0  
+SIN 0 311 50 0 0 0
D_D1         N14373 N14409 Dbreak 
L_L1         N14409 N14438  10mH  
R_R1         0 N14438  10 TC=0,0 

**** RESUMING "Practica 1-1.cir" ****
.END

**** 09/12/19 10:51:16 ***** PSpice 16.6.0 (October 2012) ***** ID# 0 ********

 ** Profile: "SCHEMATIC1-Practica 1-1"  [ C:\Users\agus_\OneDrive\Escritorio\Practica 1\1.1\practica 1-1-pspicefiles\schematic1\pract


 ****     Diode MODEL PARAMETERS


******************************************************************************




               Dbreak          
          IS   10.000000E-15 
          RS     .1          
         CJO  100.000000E-15 


**** 09/12/19 10:51:16 ***** PSpice 16.6.0 (October 2012) ***** ID# 0 ********

 ** Profile: "SCHEMATIC1-Practica 1-1"  [ C:\Users\agus_\OneDrive\Escritorio\Practica 1\1.1\practica 1-1-pspicefiles\schematic1\pract


 ****     INITIAL TRANSIENT SOLUTION       TEMPERATURE =   27.000 DEG C


******************************************************************************



 NODE   VOLTAGE     NODE   VOLTAGE     NODE   VOLTAGE     NODE   VOLTAGE


(N14373)    0.0000 (N14409)    0.0000 (N14438)    0.0000 




    VOLTAGE SOURCE CURRENTS
    NAME         CURRENT

    V_V1         0.000E+00

    TOTAL POWER DISSIPATION   0.00E+00  WATTS


**** Interrupt ****
**** Param: RUNFOR = 40m

**** Interrupt ****
**** Param: RUNFOR = 40m

**** Interrupt ****


          JOB CONCLUDED

**** 09/12/19 10:51:16 ***** PSpice 16.6.0 (October 2012) ***** ID# 0 ********

 ** Profile: "SCHEMATIC1-Practica 1-1"  [ C:\Users\agus_\OneDrive\Escritorio\Practica 1\1.1\practica 1-1-pspicefiles\schematic1\pract


 ****     JOB STATISTICS SUMMARY


******************************************************************************



  Total job time (using Solver 1)   =       15.72
